
     RDKit          3D

 16 18  0  0  0  0  0  0  0  0999 V2000
   11.0131   19.6522   48.9818 C   0  0  0  0  0  0  0  0  0  0  0  0
   11.8487   18.9152   48.1848 C   0  0  0  0  0  0  0  0  0  0  0  0
   12.6352   19.5634   47.2635 C   0  0  0  0  0  0  0  0  0  0  0  0
   12.6111   20.9263   47.1155 C   0  0  0  0  0  0  0  0  0  0  0  0
   10.9249   25.1664   48.3730 C   0  0  0  0  0  0  0  0  0  0  0  0
   10.0882   25.9161   49.1695 C   0  0  0  0  0  0  0  0  0  0  0  0
    9.2868   25.2853   50.1043 C   0  0  0  0  0  0  0  0  0  0  0  0
    9.2973   23.9172   50.2676 C   0  0  0  0  0  0  0  0  0  0  0  0
   10.1202   21.7762   49.6631 C   0  0  0  0  0  0  0  0  0  0  0  0
   11.7379   23.0208   47.7796 N   0  0  0  0  0  0  0  0  0  0  0  0
   11.7622   21.6883   47.9235 C   0  0  0  0  0  0  0  0  0  0  0  0
   10.1301   23.1426   49.4784 C   0  0  0  0  0  0  0  0  0  0  0  0
   10.9745   21.0368   48.8464 C   0  0  0  0  0  0  0  0  0  0  0  0
   10.9302   23.7746   48.5447 C   0  0  0  0  0  0  0  0  0  0  0  0
   13.4942   18.7812   46.4473 N   0  0  0  0  0  0  0  0  0  0  0  0
   10.0512   27.3320   49.0285 N   0  0  0  0  0  0  0  0  0  0  0  0
 15  3  1  0
  3  2  1  0
  2  1  2  0
  1 13  1  0
 13  9  2  0
  9 12  1  0
 12  8  2  0
  8  7  1  0
  7  6  2  0
  6 16  1  0
  6  5  1  0
  5 14  2  0
 14 10  1  0
 10 11  2  0
 11  4  1  0
  4  3  2  0
 11 13  1  0
 14 12  1  0
M  END
